<?xml version="1.0" encoding="UTF-8"?>

<!-- generated on 2023-12-08 21:18:17 by Eclipse SUMO GUI Version 1.19.0
-->

<configuration xmlns:xsi="http://www.w3.org/2001/XMLSchema-instance" xsi:noNamespaceSchemaLocation="http://sumo.dlr.de/xsd/sumoConfiguration.xsd">

    <input>
        <net-file value="network.net.xml"/>
        <route-files value="route.rou.xml"/>
    	<script file="path/to/your/python_script.py" />
    </input>

</configuration>
