<routes>
            <vType accel="1.0" decel="4.5" id="standard_car" length="5.0" minGap="2.5" maxSpeed="25" sigma="0.5" />

            <route id="W_N" edges="W2TL TL2N"/>
            <route id="W_E" edges="W2TL TL2E"/>
            <route id="W_S" edges="W2TL TL2S"/>
            <route id="N_W" edges="N2TL TL2W"/>
            <route id="N_E" edges="N2TL TL2E"/>
            <route id="N_S" edges="N2TL TL2S"/>
            <route id="E_W" edges="E2TL TL2W"/>
            <route id="E_N" edges="E2TL TL2N"/>
            <route id="E_S" edges="E2TL TL2S"/>
            <route id="S_W" edges="S2TL TL2W"/>
            <route id="S_N" edges="S2TL TL2N"/>
            <route id="S_E" edges="S2TL TL2E"/>
    <vehicle id="E_W_0" type="standard_car" route="E_W" depart="636.0" departLane="random" departSpeed="10" />
    <vehicle id="S_N_1" type="standard_car" route="S_N" depart="699.0" departLane="random" departSpeed="10" />
    <vehicle id="W_E_2" type="standard_car" route="W_E" depart="707.0" departLane="random" departSpeed="10" />
    <vehicle id="E_S_3" type="standard_car" route="E_S" depart="726.0" departLane="random" departSpeed="10" />
    <vehicle id="N_S_4" type="standard_car" route="N_S" depart="738.0" departLane="random" departSpeed="10" />
    <vehicle id="S_N_5" type="standard_car" route="S_N" depart="855.0" departLane="random" departSpeed="10" />
    <vehicle id="N_S_6" type="standard_car" route="N_S" depart="867.0" departLane="random" departSpeed="10" />
    <vehicle id="E_W_7" type="standard_car" route="E_W" depart="883.0" departLane="random" departSpeed="10" />
    <vehicle id="S_N_8" type="standard_car" route="S_N" depart="902.0" departLane="random" departSpeed="10" />
    <vehicle id="E_W_9" type="standard_car" route="E_W" depart="909.0" departLane="random" departSpeed="10" />
    <vehicle id="E_W_10" type="standard_car" route="E_W" depart="922.0" departLane="random" departSpeed="10" />
    <vehicle id="S_N_11" type="standard_car" route="S_N" depart="944.0" departLane="random" departSpeed="10" />
    <vehicle id="E_W_12" type="standard_car" route="E_W" depart="954.0" departLane="random" departSpeed="10" />
    <vehicle id="S_N_13" type="standard_car" route="S_N" depart="956.0" departLane="random" departSpeed="10" />
    <vehicle id="E_W_14" type="standard_car" route="E_W" depart="957.0" departLane="random" departSpeed="10" />
    <vehicle id="E_W_15" type="standard_car" route="E_W" depart="961.0" departLane="random" departSpeed="10" />
    <vehicle id="W_E_16" type="standard_car" route="W_E" depart="968.0" departLane="random" departSpeed="10" />
    <vehicle id="N_S_17" type="standard_car" route="N_S" depart="980.0" departLane="random" departSpeed="10" />
    <vehicle id="N_S_18" type="standard_car" route="N_S" depart="984.0" departLane="random" departSpeed="10" />
    <vehicle id="S_N_19" type="standard_car" route="S_N" depart="993.0" departLane="random" departSpeed="10" />
    <vehicle id="W_E_20" type="standard_car" route="W_E" depart="996.0" departLane="random" departSpeed="10" />
    <vehicle id="W_E_21" type="standard_car" route="W_E" depart="1023.0" departLane="random" departSpeed="10" />
    <vehicle id="E_W_22" type="standard_car" route="E_W" depart="1024.0" departLane="random" departSpeed="10" />
    <vehicle id="W_S_23" type="standard_car" route="W_S" depart="1037.0" departLane="random" departSpeed="10" />
    <vehicle id="E_W_24" type="standard_car" route="E_W" depart="1049.0" departLane="random" departSpeed="10" />
    <vehicle id="N_S_25" type="standard_car" route="N_S" depart="1050.0" departLane="random" departSpeed="10" />
    <vehicle id="E_N_26" type="standard_car" route="E_N" depart="1061.0" departLane="random" departSpeed="10" />
    <vehicle id="N_S_27" type="standard_car" route="N_S" depart="1070.0" departLane="random" departSpeed="10" />
    <vehicle id="S_N_28" type="standard_car" route="S_N" depart="1080.0" departLane="random" departSpeed="10" />
    <vehicle id="W_S_29" type="standard_car" route="W_S" depart="1093.0" departLane="random" departSpeed="10" />
    <vehicle id="S_N_30" type="standard_car" route="S_N" depart="1097.0" departLane="random" departSpeed="10" />
    <vehicle id="W_E_31" type="standard_car" route="W_E" depart="1106.0" departLane="random" departSpeed="10" />
    <vehicle id="N_W_32" type="standard_car" route="N_W" depart="1111.0" departLane="random" departSpeed="10" />
    <vehicle id="W_E_33" type="standard_car" route="W_E" depart="1115.0" departLane="random" departSpeed="10" />
    <vehicle id="S_N_34" type="standard_car" route="S_N" depart="1125.0" departLane="random" departSpeed="10" />
    <vehicle id="N_S_35" type="standard_car" route="N_S" depart="1130.0" departLane="random" departSpeed="10" />
    <vehicle id="W_E_36" type="standard_car" route="W_E" depart="1144.0" departLane="random" departSpeed="10" />
    <vehicle id="S_N_37" type="standard_car" route="S_N" depart="1153.0" departLane="random" departSpeed="10" />
    <vehicle id="S_N_38" type="standard_car" route="S_N" depart="1158.0" departLane="random" departSpeed="10" />
    <vehicle id="S_N_39" type="standard_car" route="S_N" depart="1161.0" departLane="random" departSpeed="10" />
    <vehicle id="N_S_40" type="standard_car" route="N_S" depart="1166.0" departLane="random" departSpeed="10" />
    <vehicle id="E_S_41" type="standard_car" route="E_S" depart="1176.0" departLane="random" departSpeed="10" />
    <vehicle id="N_S_42" type="standard_car" route="N_S" depart="1176.0" departLane="random" departSpeed="10" />
    <vehicle id="N_S_43" type="standard_car" route="N_S" depart="1178.0" departLane="random" departSpeed="10" />
    <vehicle id="S_N_44" type="standard_car" route="S_N" depart="1195.0" departLane="random" departSpeed="10" />
    <vehicle id="N_S_45" type="standard_car" route="N_S" depart="1198.0" departLane="random" departSpeed="10" />
    <vehicle id="N_S_46" type="standard_car" route="N_S" depart="1216.0" departLane="random" departSpeed="10" />
    <vehicle id="E_W_47" type="standard_car" route="E_W" depart="1217.0" departLane="random" departSpeed="10" />
    <vehicle id="E_N_48" type="standard_car" route="E_N" depart="1220.0" departLane="random" departSpeed="10" />
    <vehicle id="W_E_49" type="standard_car" route="W_E" depart="1226.0" departLane="random" departSpeed="10" />
    <vehicle id="S_N_50" type="standard_car" route="S_N" depart="1231.0" departLane="random" departSpeed="10" />
    <vehicle id="E_W_51" type="standard_car" route="E_W" depart="1239.0" departLane="random" departSpeed="10" />
    <vehicle id="E_S_52" type="standard_car" route="E_S" depart="1245.0" departLane="random" departSpeed="10" />
    <vehicle id="N_S_53" type="standard_car" route="N_S" depart="1251.0" departLane="random" departSpeed="10" />
    <vehicle id="W_E_54" type="standard_car" route="W_E" depart="1259.0" departLane="random" departSpeed="10" />
    <vehicle id="E_W_55" type="standard_car" route="E_W" depart="1266.0" departLane="random" departSpeed="10" />
    <vehicle id="N_W_56" type="standard_car" route="N_W" depart="1274.0" departLane="random" departSpeed="10" />
    <vehicle id="S_N_57" type="standard_car" route="S_N" depart="1278.0" departLane="random" departSpeed="10" />
    <vehicle id="S_E_58" type="standard_car" route="S_E" depart="1291.0" departLane="random" departSpeed="10" />
    <vehicle id="E_W_59" type="standard_car" route="E_W" depart="1292.0" departLane="random" departSpeed="10" />
    <vehicle id="N_E_60" type="standard_car" route="N_E" depart="1293.0" departLane="random" departSpeed="10" />
    <vehicle id="W_S_61" type="standard_car" route="W_S" depart="1298.0" departLane="random" departSpeed="10" />
    <vehicle id="S_W_62" type="standard_car" route="S_W" depart="1301.0" departLane="random" departSpeed="10" />
    <vehicle id="W_E_63" type="standard_car" route="W_E" depart="1303.0" departLane="random" departSpeed="10" />
    <vehicle id="E_N_64" type="standard_car" route="E_N" depart="1306.0" departLane="random" departSpeed="10" />
    <vehicle id="E_W_65" type="standard_car" route="E_W" depart="1311.0" departLane="random" departSpeed="10" />
    <vehicle id="N_S_66" type="standard_car" route="N_S" depart="1321.0" departLane="random" departSpeed="10" />
    <vehicle id="N_S_67" type="standard_car" route="N_S" depart="1327.0" departLane="random" departSpeed="10" />
    <vehicle id="S_N_68" type="standard_car" route="S_N" depart="1327.0" departLane="random" departSpeed="10" />
    <vehicle id="S_N_69" type="standard_car" route="S_N" depart="1345.0" departLane="random" departSpeed="10" />
    <vehicle id="E_W_70" type="standard_car" route="E_W" depart="1350.0" departLane="random" departSpeed="10" />
    <vehicle id="S_N_71" type="standard_car" route="S_N" depart="1380.0" departLane="random" departSpeed="10" />
    <vehicle id="S_N_72" type="standard_car" route="S_N" depart="1384.0" departLane="random" departSpeed="10" />
    <vehicle id="S_N_73" type="standard_car" route="S_N" depart="1385.0" departLane="random" departSpeed="10" />
    <vehicle id="N_S_74" type="standard_car" route="N_S" depart="1392.0" departLane="random" departSpeed="10" />
    <vehicle id="S_N_75" type="standard_car" route="S_N" depart="1398.0" departLane="random" departSpeed="10" />
    <vehicle id="N_E_76" type="standard_car" route="N_E" depart="1401.0" departLane="random" departSpeed="10" />
    <vehicle id="E_W_77" type="standard_car" route="E_W" depart="1404.0" departLane="random" departSpeed="10" />
    <vehicle id="W_S_78" type="standard_car" route="W_S" depart="1407.0" departLane="random" departSpeed="10" />
    <vehicle id="E_S_79" type="standard_car" route="E_S" depart="1412.0" departLane="random" departSpeed="10" />
    <vehicle id="W_E_80" type="standard_car" route="W_E" depart="1413.0" departLane="random" departSpeed="10" />
    <vehicle id="W_E_81" type="standard_car" route="W_E" depart="1419.0" departLane="random" departSpeed="10" />
    <vehicle id="N_S_82" type="standard_car" route="N_S" depart="1420.0" departLane="random" departSpeed="10" />
    <vehicle id="N_S_83" type="standard_car" route="N_S" depart="1425.0" departLane="random" departSpeed="10" />
    <vehicle id="N_S_84" type="standard_car" route="N_S" depart="1426.0" departLane="random" departSpeed="10" />
    <vehicle id="N_S_85" type="standard_car" route="N_S" depart="1427.0" departLane="random" departSpeed="10" />
    <vehicle id="E_N_86" type="standard_car" route="E_N" depart="1431.0" departLane="random" departSpeed="10" />
    <vehicle id="N_S_87" type="standard_car" route="N_S" depart="1439.0" departLane="random" departSpeed="10" />
    <vehicle id="N_W_88" type="standard_car" route="N_W" depart="1443.0" departLane="random" departSpeed="10" />
    <vehicle id="E_W_89" type="standard_car" route="E_W" depart="1445.0" departLane="random" departSpeed="10" />
    <vehicle id="W_E_90" type="standard_car" route="W_E" depart="1451.0" departLane="random" departSpeed="10" />
    <vehicle id="W_E_91" type="standard_car" route="W_E" depart="1456.0" departLane="random" departSpeed="10" />
    <vehicle id="W_E_92" type="standard_car" route="W_E" depart="1458.0" departLane="random" departSpeed="10" />
    <vehicle id="E_W_93" type="standard_car" route="E_W" depart="1470.0" departLane="random" departSpeed="10" />
    <vehicle id="E_W_94" type="standard_car" route="E_W" depart="1473.0" departLane="random" departSpeed="10" />
    <vehicle id="E_W_95" type="standard_car" route="E_W" depart="1477.0" departLane="random" departSpeed="10" />
    <vehicle id="S_W_96" type="standard_car" route="S_W" depart="1492.0" departLane="random" departSpeed="10" />
    <vehicle id="S_N_97" type="standard_car" route="S_N" depart="1496.0" departLane="random" departSpeed="10" />
    <vehicle id="S_N_98" type="standard_car" route="S_N" depart="1497.0" departLane="random" departSpeed="10" />
    <vehicle id="E_W_99" type="standard_car" route="E_W" depart="1500.0" departLane="random" departSpeed="10" />
    <vehicle id="S_N_100" type="standard_car" route="S_N" depart="1502.0" departLane="random" departSpeed="10" />
    <vehicle id="N_S_101" type="standard_car" route="N_S" depart="1511.0" departLane="random" departSpeed="10" />
    <vehicle id="E_W_102" type="standard_car" route="E_W" depart="1512.0" departLane="random" departSpeed="10" />
    <vehicle id="N_E_103" type="standard_car" route="N_E" depart="1515.0" departLane="random" departSpeed="10" />
    <vehicle id="W_E_104" type="standard_car" route="W_E" depart="1517.0" departLane="random" departSpeed="10" />
    <vehicle id="N_S_105" type="standard_car" route="N_S" depart="1518.0" departLane="random" departSpeed="10" />
    <vehicle id="E_W_106" type="standard_car" route="E_W" depart="1520.0" departLane="random" departSpeed="10" />
    <vehicle id="W_E_107" type="standard_car" route="W_E" depart="1525.0" departLane="random" departSpeed="10" />
    <vehicle id="W_E_108" type="standard_car" route="W_E" depart="1539.0" departLane="random" departSpeed="10" />
    <vehicle id="N_S_109" type="standard_car" route="N_S" depart="1539.0" departLane="random" departSpeed="10" />
    <vehicle id="N_S_110" type="standard_car" route="N_S" depart="1550.0" departLane="random" departSpeed="10" />
    <vehicle id="W_N_111" type="standard_car" route="W_N" depart="1551.0" departLane="random" departSpeed="10" />
    <vehicle id="S_N_112" type="standard_car" route="S_N" depart="1558.0" departLane="random" departSpeed="10" />
    <vehicle id="N_W_113" type="standard_car" route="N_W" depart="1563.0" departLane="random" departSpeed="10" />
    <vehicle id="E_W_114" type="standard_car" route="E_W" depart="1565.0" departLane="random" departSpeed="10" />
    <vehicle id="S_N_115" type="standard_car" route="S_N" depart="1567.0" departLane="random" departSpeed="10" />
    <vehicle id="N_S_116" type="standard_car" route="N_S" depart="1576.0" departLane="random" departSpeed="10" />
    <vehicle id="E_W_117" type="standard_car" route="E_W" depart="1583.0" departLane="random" departSpeed="10" />
    <vehicle id="E_W_118" type="standard_car" route="E_W" depart="1584.0" departLane="random" departSpeed="10" />
    <vehicle id="N_S_119" type="standard_car" route="N_S" depart="1585.0" departLane="random" departSpeed="10" />
    <vehicle id="S_N_120" type="standard_car" route="S_N" depart="1586.0" departLane="random" departSpeed="10" />
    <vehicle id="E_W_121" type="standard_car" route="E_W" depart="1587.0" departLane="random" departSpeed="10" />
    <vehicle id="N_S_122" type="standard_car" route="N_S" depart="1593.0" departLane="random" departSpeed="10" />
    <vehicle id="W_E_123" type="standard_car" route="W_E" depart="1598.0" departLane="random" departSpeed="10" />
    <vehicle id="E_W_124" type="standard_car" route="E_W" depart="1602.0" departLane="random" departSpeed="10" />
    <vehicle id="S_N_125" type="standard_car" route="S_N" depart="1604.0" departLane="random" departSpeed="10" />
    <vehicle id="W_E_126" type="standard_car" route="W_E" depart="1604.0" departLane="random" departSpeed="10" />
    <vehicle id="N_S_127" type="standard_car" route="N_S" depart="1609.0" departLane="random" departSpeed="10" />
    <vehicle id="E_W_128" type="standard_car" route="E_W" depart="1612.0" departLane="random" departSpeed="10" />
    <vehicle id="W_E_129" type="standard_car" route="W_E" depart="1613.0" departLane="random" departSpeed="10" />
    <vehicle id="N_S_130" type="standard_car" route="N_S" depart="1623.0" departLane="random" departSpeed="10" />
    <vehicle id="S_E_131" type="standard_car" route="S_E" depart="1629.0" departLane="random" departSpeed="10" />
    <vehicle id="S_N_132" type="standard_car" route="S_N" depart="1631.0" departLane="random" departSpeed="10" />
    <vehicle id="S_E_133" type="standard_car" route="S_E" depart="1642.0" departLane="random" departSpeed="10" />
    <vehicle id="E_W_134" type="standard_car" route="E_W" depart="1643.0" departLane="random" departSpeed="10" />
    <vehicle id="E_W_135" type="standard_car" route="E_W" depart="1654.0" departLane="random" departSpeed="10" />
    <vehicle id="E_W_136" type="standard_car" route="E_W" depart="1656.0" departLane="random" departSpeed="10" />
    <vehicle id="W_E_137" type="standard_car" route="W_E" depart="1659.0" departLane="random" departSpeed="10" />
    <vehicle id="S_E_138" type="standard_car" route="S_E" depart="1663.0" departLane="random" departSpeed="10" />
    <vehicle id="W_E_139" type="standard_car" route="W_E" depart="1663.0" departLane="random" departSpeed="10" />
    <vehicle id="S_N_140" type="standard_car" route="S_N" depart="1669.0" departLane="random" departSpeed="10" />
    <vehicle id="W_E_141" type="standard_car" route="W_E" depart="1672.0" departLane="random" departSpeed="10" />
    <vehicle id="N_S_142" type="standard_car" route="N_S" depart="1672.0" departLane="random" departSpeed="10" />
    <vehicle id="E_W_143" type="standard_car" route="E_W" depart="1673.0" departLane="random" departSpeed="10" />
    <vehicle id="N_E_144" type="standard_car" route="N_E" depart="1678.0" departLane="random" departSpeed="10" />
    <vehicle id="N_W_145" type="standard_car" route="N_W" depart="1681.0" departLane="random" departSpeed="10" />
    <vehicle id="E_W_146" type="standard_car" route="E_W" depart="1682.0" departLane="random" departSpeed="10" />
    <vehicle id="N_S_147" type="standard_car" route="N_S" depart="1688.0" departLane="random" departSpeed="10" />
    <vehicle id="E_W_148" type="standard_car" route="E_W" depart="1690.0" departLane="random" departSpeed="10" />
    <vehicle id="S_N_149" type="standard_car" route="S_N" depart="1691.0" departLane="random" departSpeed="10" />
    <vehicle id="E_S_150" type="standard_car" route="E_S" depart="1693.0" departLane="random" departSpeed="10" />
    <vehicle id="S_N_151" type="standard_car" route="S_N" depart="1696.0" departLane="random" departSpeed="10" />
    <vehicle id="S_N_152" type="standard_car" route="S_N" depart="1700.0" departLane="random" departSpeed="10" />
    <vehicle id="E_W_153" type="standard_car" route="E_W" depart="1705.0" departLane="random" departSpeed="10" />
    <vehicle id="N_S_154" type="standard_car" route="N_S" depart="1706.0" departLane="random" departSpeed="10" />
    <vehicle id="S_N_155" type="standard_car" route="S_N" depart="1706.0" departLane="random" departSpeed="10" />
    <vehicle id="N_S_156" type="standard_car" route="N_S" depart="1713.0" departLane="random" departSpeed="10" />
    <vehicle id="N_W_157" type="standard_car" route="N_W" depart="1718.0" departLane="random" departSpeed="10" />
    <vehicle id="S_N_158" type="standard_car" route="S_N" depart="1721.0" departLane="random" departSpeed="10" />
    <vehicle id="S_E_159" type="standard_car" route="S_E" depart="1726.0" departLane="random" departSpeed="10" />
    <vehicle id="N_S_160" type="standard_car" route="N_S" depart="1728.0" departLane="random" departSpeed="10" />
    <vehicle id="S_N_161" type="standard_car" route="S_N" depart="1730.0" departLane="random" departSpeed="10" />
    <vehicle id="N_E_162" type="standard_car" route="N_E" depart="1730.0" departLane="random" departSpeed="10" />
    <vehicle id="S_N_163" type="standard_car" route="S_N" depart="1740.0" departLane="random" departSpeed="10" />
    <vehicle id="S_N_164" type="standard_car" route="S_N" depart="1740.0" departLane="random" departSpeed="10" />
    <vehicle id="E_W_165" type="standard_car" route="E_W" depart="1741.0" departLane="random" departSpeed="10" />
    <vehicle id="W_E_166" type="standard_car" route="W_E" depart="1742.0" departLane="random" departSpeed="10" />
    <vehicle id="E_W_167" type="standard_car" route="E_W" depart="1744.0" departLane="random" departSpeed="10" />
    <vehicle id="W_E_168" type="standard_car" route="W_E" depart="1749.0" departLane="random" departSpeed="10" />
    <vehicle id="N_S_169" type="standard_car" route="N_S" depart="1751.0" departLane="random" departSpeed="10" />
    <vehicle id="E_W_170" type="standard_car" route="E_W" depart="1755.0" departLane="random" departSpeed="10" />
    <vehicle id="E_S_171" type="standard_car" route="E_S" depart="1756.0" departLane="random" departSpeed="10" />
    <vehicle id="W_E_172" type="standard_car" route="W_E" depart="1759.0" departLane="random" departSpeed="10" />
    <vehicle id="S_W_173" type="standard_car" route="S_W" depart="1760.0" departLane="random" departSpeed="10" />
    <vehicle id="N_S_174" type="standard_car" route="N_S" depart="1768.0" departLane="random" departSpeed="10" />
    <vehicle id="E_W_175" type="standard_car" route="E_W" depart="1771.0" departLane="random" departSpeed="10" />
    <vehicle id="W_E_176" type="standard_car" route="W_E" depart="1775.0" departLane="random" departSpeed="10" />
    <vehicle id="S_N_177" type="standard_car" route="S_N" depart="1785.0" departLane="random" departSpeed="10" />
    <vehicle id="S_E_178" type="standard_car" route="S_E" depart="1786.0" departLane="random" departSpeed="10" />
    <vehicle id="N_W_179" type="standard_car" route="N_W" depart="1790.0" departLane="random" departSpeed="10" />
    <vehicle id="N_S_180" type="standard_car" route="N_S" depart="1791.0" departLane="random" departSpeed="10" />
    <vehicle id="W_E_181" type="standard_car" route="W_E" depart="1794.0" departLane="random" departSpeed="10" />
    <vehicle id="E_W_182" type="standard_car" route="E_W" depart="1803.0" departLane="random" departSpeed="10" />
    <vehicle id="W_E_183" type="standard_car" route="W_E" depart="1805.0" departLane="random" departSpeed="10" />
    <vehicle id="N_S_184" type="standard_car" route="N_S" depart="1807.0" departLane="random" departSpeed="10" />
    <vehicle id="N_S_185" type="standard_car" route="N_S" depart="1807.0" departLane="random" departSpeed="10" />
    <vehicle id="N_S_186" type="standard_car" route="N_S" depart="1810.0" departLane="random" departSpeed="10" />
    <vehicle id="N_S_187" type="standard_car" route="N_S" depart="1811.0" departLane="random" departSpeed="10" />
    <vehicle id="E_W_188" type="standard_car" route="E_W" depart="1811.0" departLane="random" departSpeed="10" />
    <vehicle id="N_E_189" type="standard_car" route="N_E" depart="1814.0" departLane="random" departSpeed="10" />
    <vehicle id="W_E_190" type="standard_car" route="W_E" depart="1816.0" departLane="random" departSpeed="10" />
    <vehicle id="N_S_191" type="standard_car" route="N_S" depart="1818.0" departLane="random" departSpeed="10" />
    <vehicle id="E_W_192" type="standard_car" route="E_W" depart="1818.0" departLane="random" departSpeed="10" />
    <vehicle id="N_S_193" type="standard_car" route="N_S" depart="1823.0" departLane="random" departSpeed="10" />
    <vehicle id="N_S_194" type="standard_car" route="N_S" depart="1830.0" departLane="random" departSpeed="10" />
    <vehicle id="S_N_195" type="standard_car" route="S_N" depart="1831.0" departLane="random" departSpeed="10" />
    <vehicle id="E_W_196" type="standard_car" route="E_W" depart="1831.0" departLane="random" departSpeed="10" />
    <vehicle id="E_W_197" type="standard_car" route="E_W" depart="1831.0" departLane="random" departSpeed="10" />
    <vehicle id="S_N_198" type="standard_car" route="S_N" depart="1833.0" departLane="random" departSpeed="10" />
    <vehicle id="E_W_199" type="standard_car" route="E_W" depart="1835.0" departLane="random" departSpeed="10" />
    <vehicle id="S_N_200" type="standard_car" route="S_N" depart="1839.0" departLane="random" departSpeed="10" />
    <vehicle id="W_S_201" type="standard_car" route="W_S" depart="1842.0" departLane="random" departSpeed="10" />
    <vehicle id="E_W_202" type="standard_car" route="E_W" depart="1842.0" departLane="random" departSpeed="10" />
    <vehicle id="W_E_203" type="standard_car" route="W_E" depart="1847.0" departLane="random" departSpeed="10" />
    <vehicle id="N_S_204" type="standard_car" route="N_S" depart="1850.0" departLane="random" departSpeed="10" />
    <vehicle id="W_S_205" type="standard_car" route="W_S" depart="1851.0" departLane="random" departSpeed="10" />
    <vehicle id="N_S_206" type="standard_car" route="N_S" depart="1851.0" departLane="random" departSpeed="10" />
    <vehicle id="S_N_207" type="standard_car" route="S_N" depart="1852.0" departLane="random" departSpeed="10" />
    <vehicle id="N_S_208" type="standard_car" route="N_S" depart="1852.0" departLane="random" departSpeed="10" />
    <vehicle id="E_W_209" type="standard_car" route="E_W" depart="1852.0" departLane="random" departSpeed="10" />
    <vehicle id="N_E_210" type="standard_car" route="N_E" depart="1856.0" departLane="random" departSpeed="10" />
    <vehicle id="S_E_211" type="standard_car" route="S_E" depart="1857.0" departLane="random" departSpeed="10" />
    <vehicle id="E_S_212" type="standard_car" route="E_S" depart="1861.0" departLane="random" departSpeed="10" />
    <vehicle id="W_E_213" type="standard_car" route="W_E" depart="1862.0" departLane="random" departSpeed="10" />
    <vehicle id="W_E_214" type="standard_car" route="W_E" depart="1862.0" departLane="random" departSpeed="10" />
    <vehicle id="E_N_215" type="standard_car" route="E_N" depart="1865.0" departLane="random" departSpeed="10" />
    <vehicle id="N_S_216" type="standard_car" route="N_S" depart="1866.0" departLane="random" departSpeed="10" />
    <vehicle id="S_N_217" type="standard_car" route="S_N" depart="1871.0" departLane="random" departSpeed="10" />
    <vehicle id="W_E_218" type="standard_car" route="W_E" depart="1873.0" departLane="random" departSpeed="10" />
    <vehicle id="E_W_219" type="standard_car" route="E_W" depart="1873.0" departLane="random" departSpeed="10" />
    <vehicle id="E_W_220" type="standard_car" route="E_W" depart="1877.0" departLane="random" departSpeed="10" />
    <vehicle id="S_N_221" type="standard_car" route="S_N" depart="1883.0" departLane="random" departSpeed="10" />
    <vehicle id="S_N_222" type="standard_car" route="S_N" depart="1895.0" departLane="random" departSpeed="10" />
    <vehicle id="E_W_223" type="standard_car" route="E_W" depart="1896.0" departLane="random" departSpeed="10" />
    <vehicle id="E_W_224" type="standard_car" route="E_W" depart="1896.0" departLane="random" departSpeed="10" />
    <vehicle id="W_E_225" type="standard_car" route="W_E" depart="1896.0" departLane="random" departSpeed="10" />
    <vehicle id="W_E_226" type="standard_car" route="W_E" depart="1901.0" departLane="random" departSpeed="10" />
    <vehicle id="N_E_227" type="standard_car" route="N_E" depart="1901.0" departLane="random" departSpeed="10" />
    <vehicle id="W_E_228" type="standard_car" route="W_E" depart="1902.0" departLane="random" departSpeed="10" />
    <vehicle id="N_W_229" type="standard_car" route="N_W" depart="1902.0" departLane="random" departSpeed="10" />
    <vehicle id="E_W_230" type="standard_car" route="E_W" depart="1903.0" departLane="random" departSpeed="10" />
    <vehicle id="N_W_231" type="standard_car" route="N_W" depart="1905.0" departLane="random" departSpeed="10" />
    <vehicle id="E_W_232" type="standard_car" route="E_W" depart="1907.0" departLane="random" departSpeed="10" />
    <vehicle id="W_E_233" type="standard_car" route="W_E" depart="1912.0" departLane="random" departSpeed="10" />
    <vehicle id="E_W_234" type="standard_car" route="E_W" depart="1914.0" departLane="random" departSpeed="10" />
    <vehicle id="S_N_235" type="standard_car" route="S_N" depart="1917.0" departLane="random" departSpeed="10" />
    <vehicle id="W_E_236" type="standard_car" route="W_E" depart="1919.0" departLane="random" departSpeed="10" />
    <vehicle id="W_E_237" type="standard_car" route="W_E" depart="1920.0" departLane="random" departSpeed="10" />
    <vehicle id="S_N_238" type="standard_car" route="S_N" depart="1923.0" departLane="random" departSpeed="10" />
    <vehicle id="W_E_239" type="standard_car" route="W_E" depart="1926.0" departLane="random" departSpeed="10" />
    <vehicle id="N_S_240" type="standard_car" route="N_S" depart="1927.0" departLane="random" departSpeed="10" />
    <vehicle id="E_W_241" type="standard_car" route="E_W" depart="1930.0" departLane="random" departSpeed="10" />
    <vehicle id="W_E_242" type="standard_car" route="W_E" depart="1935.0" departLane="random" departSpeed="10" />
    <vehicle id="S_N_243" type="standard_car" route="S_N" depart="1935.0" departLane="random" departSpeed="10" />
    <vehicle id="E_W_244" type="standard_car" route="E_W" depart="1936.0" departLane="random" departSpeed="10" />
    <vehicle id="E_W_245" type="standard_car" route="E_W" depart="1936.0" departLane="random" departSpeed="10" />
    <vehicle id="E_W_246" type="standard_car" route="E_W" depart="1940.0" departLane="random" departSpeed="10" />
    <vehicle id="W_E_247" type="standard_car" route="W_E" depart="1951.0" departLane="random" departSpeed="10" />
    <vehicle id="S_N_248" type="standard_car" route="S_N" depart="1956.0" departLane="random" departSpeed="10" />
    <vehicle id="E_W_249" type="standard_car" route="E_W" depart="1956.0" departLane="random" departSpeed="10" />
    <vehicle id="N_S_250" type="standard_car" route="N_S" depart="1965.0" departLane="random" departSpeed="10" />
    <vehicle id="E_W_251" type="standard_car" route="E_W" depart="1966.0" departLane="random" departSpeed="10" />
    <vehicle id="W_S_252" type="standard_car" route="W_S" depart="1967.0" departLane="random" departSpeed="10" />
    <vehicle id="S_W_253" type="standard_car" route="S_W" depart="1972.0" departLane="random" departSpeed="10" />
    <vehicle id="W_E_254" type="standard_car" route="W_E" depart="1973.0" departLane="random" departSpeed="10" />
    <vehicle id="W_E_255" type="standard_car" route="W_E" depart="1976.0" departLane="random" departSpeed="10" />
    <vehicle id="E_W_256" type="standard_car" route="E_W" depart="1976.0" departLane="random" departSpeed="10" />
    <vehicle id="S_E_257" type="standard_car" route="S_E" depart="1976.0" departLane="random" departSpeed="10" />