<routes> 
                  <vType accel="1.0" decel="4.5" id="standard_car" length="5.0" minGap="2.5" maxSpeed="25" sigma="0.5" />

            <route id="E8" edges="E8 E10"/>
            <route id="E9" edges="E9 E10"/>

    <vehicle id="E90" type="standard_car" route="E9" depart="527.0" departLane="random" departSpeed="10" arrivalLane="random" />
    <vehicle id="E81" type="standard_car" route="E8" depart="586.0" departLane="random" departSpeed="10" arrivalLane="random" />
    <vehicle id="E92" type="standard_car" route="E9" depart="598.0" departLane="random" departSpeed="10" arrivalLane="random" />
    <vehicle id="E83" type="standard_car" route="E8" depart="635.0" departLane="random" departSpeed="10" arrivalLane="random" />
    <vehicle id="E84" type="standard_car" route="E8" depart="688.0" departLane="random" departSpeed="10" arrivalLane="random" />
    <vehicle id="E85" type="standard_car" route="E8" depart="735.0" departLane="random" departSpeed="10" arrivalLane="random" />
    <vehicle id="E86" type="standard_car" route="E8" depart="736.0" departLane="random" departSpeed="10" arrivalLane="random" />
    <vehicle id="E87" type="standard_car" route="E8" depart="743.0" departLane="random" departSpeed="10" arrivalLane="random" />
    <vehicle id="E88" type="standard_car" route="E8" depart="747.0" departLane="random" departSpeed="10" arrivalLane="random" />
    <vehicle id="E89" type="standard_car" route="E8" depart="754.0" departLane="random" departSpeed="10" arrivalLane="random" />
    <vehicle id="E910" type="standard_car" route="E9" depart="756.0" departLane="random" departSpeed="10" arrivalLane="random" />
    <vehicle id="E911" type="standard_car" route="E9" depart="768.0" departLane="random" departSpeed="10" arrivalLane="random" />
    <vehicle id="E812" type="standard_car" route="E8" depart="794.0" departLane="random" departSpeed="10" arrivalLane="random" />
    <vehicle id="E813" type="standard_car" route="E8" depart="797.0" departLane="random" departSpeed="10" arrivalLane="random" />
    <vehicle id="E914" type="standard_car" route="E9" depart="805.0" departLane="random" departSpeed="10" arrivalLane="random" />
    <vehicle id="E815" type="standard_car" route="E8" depart="820.0" departLane="random" departSpeed="10" arrivalLane="random" />
    <vehicle id="E816" type="standard_car" route="E8" depart="828.0" departLane="random" departSpeed="10" arrivalLane="random" />
    <vehicle id="E817" type="standard_car" route="E8" depart="845.0" departLane="random" departSpeed="10" arrivalLane="random" />
    <vehicle id="E818" type="standard_car" route="E8" depart="850.0" departLane="random" departSpeed="10" arrivalLane="random" />
    <vehicle id="E819" type="standard_car" route="E8" depart="856.0" departLane="random" departSpeed="10" arrivalLane="random" />
    <vehicle id="E920" type="standard_car" route="E9" depart="858.0" departLane="random" departSpeed="10" arrivalLane="random" />
    <vehicle id="E921" type="standard_car" route="E9" depart="891.0" departLane="random" departSpeed="10" arrivalLane="random" />
    <vehicle id="E822" type="standard_car" route="E8" depart="907.0" departLane="random" departSpeed="10" arrivalLane="random" />
    <vehicle id="E823" type="standard_car" route="E8" depart="914.0" departLane="random" departSpeed="10" arrivalLane="random" />
    <vehicle id="E824" type="standard_car" route="E8" depart="922.0" departLane="random" departSpeed="10" arrivalLane="random" />
    <vehicle id="E825" type="standard_car" route="E8" depart="931.0" departLane="random" departSpeed="10" arrivalLane="random" />
    <vehicle id="E926" type="standard_car" route="E9" depart="941.0" departLane="random" departSpeed="10" arrivalLane="random" />
    <vehicle id="E927" type="standard_car" route="E9" depart="949.0" departLane="random" departSpeed="10" arrivalLane="random" />
    <vehicle id="E828" type="standard_car" route="E8" depart="957.0" departLane="random" departSpeed="10" arrivalLane="random" />
    <vehicle id="E829" type="standard_car" route="E8" depart="963.0" departLane="random" departSpeed="10" arrivalLane="random" />
    <vehicle id="E830" type="standard_car" route="E8" depart="971.0" departLane="random" departSpeed="10" arrivalLane="random" />
    <vehicle id="E831" type="standard_car" route="E8" depart="979.0" departLane="random" departSpeed="10" arrivalLane="random" />
    <vehicle id="E832" type="standard_car" route="E8" depart="980.0" departLane="random" departSpeed="10" arrivalLane="random" />
    <vehicle id="E833" type="standard_car" route="E8" depart="992.0" departLane="random" departSpeed="10" arrivalLane="random" />
    <vehicle id="E834" type="standard_car" route="E8" depart="996.0" departLane="random" departSpeed="10" arrivalLane="random" />
    <vehicle id="E935" type="standard_car" route="E9" depart="1007.0" departLane="random" departSpeed="10" arrivalLane="random" />
    <vehicle id="E836" type="standard_car" route="E8" depart="1008.0" departLane="random" departSpeed="10" arrivalLane="random" />
    <vehicle id="E837" type="standard_car" route="E8" depart="1060.0" departLane="random" departSpeed="10" arrivalLane="random" />
    <vehicle id="E838" type="standard_car" route="E8" depart="1065.0" departLane="random" departSpeed="10" arrivalLane="random" />
    <vehicle id="E839" type="standard_car" route="E8" depart="1075.0" departLane="random" departSpeed="10" arrivalLane="random" />
    <vehicle id="E840" type="standard_car" route="E8" depart="1081.0" departLane="random" departSpeed="10" arrivalLane="random" />
    <vehicle id="E841" type="standard_car" route="E8" depart="1088.0" departLane="random" departSpeed="10" arrivalLane="random" />
    <vehicle id="E842" type="standard_car" route="E8" depart="1091.0" departLane="random" departSpeed="10" arrivalLane="random" />
    <vehicle id="E843" type="standard_car" route="E8" depart="1098.0" departLane="random" departSpeed="10" arrivalLane="random" />
    <vehicle id="E844" type="standard_car" route="E8" depart="1100.0" departLane="random" departSpeed="10" arrivalLane="random" />
    <vehicle id="E845" type="standard_car" route="E8" depart="1107.0" departLane="random" departSpeed="10" arrivalLane="random" />
    <vehicle id="E846" type="standard_car" route="E8" depart="1108.0" departLane="random" departSpeed="10" arrivalLane="random" />
    <vehicle id="E947" type="standard_car" route="E9" depart="1112.0" departLane="random" departSpeed="10" arrivalLane="random" />
    <vehicle id="E848" type="standard_car" route="E8" depart="1139.0" departLane="random" departSpeed="10" arrivalLane="random" />
    <vehicle id="E849" type="standard_car" route="E8" depart="1140.0" departLane="random" departSpeed="10" arrivalLane="random" />
    <vehicle id="E950" type="standard_car" route="E9" depart="1150.0" departLane="random" departSpeed="10" arrivalLane="random" />
    <vehicle id="E851" type="standard_car" route="E8" depart="1157.0" departLane="random" departSpeed="10" arrivalLane="random" />
    <vehicle id="E852" type="standard_car" route="E8" depart="1158.0" departLane="random" departSpeed="10" arrivalLane="random" />
    <vehicle id="E953" type="standard_car" route="E9" depart="1165.0" departLane="random" departSpeed="10" arrivalLane="random" />
    <vehicle id="E854" type="standard_car" route="E8" depart="1169.0" departLane="random" departSpeed="10" arrivalLane="random" />
    <vehicle id="E955" type="standard_car" route="E9" depart="1173.0" departLane="random" departSpeed="10" arrivalLane="random" />
    <vehicle id="E856" type="standard_car" route="E8" depart="1177.0" departLane="random" departSpeed="10" arrivalLane="random" />
    <vehicle id="E957" type="standard_car" route="E9" depart="1180.0" departLane="random" departSpeed="10" arrivalLane="random" />
    <vehicle id="E858" type="standard_car" route="E8" depart="1180.0" departLane="random" departSpeed="10" arrivalLane="random" />
    <vehicle id="E959" type="standard_car" route="E9" depart="1196.0" departLane="random" departSpeed="10" arrivalLane="random" />
    <vehicle id="E860" type="standard_car" route="E8" depart="1198.0" departLane="random" departSpeed="10" arrivalLane="random" />
    <vehicle id="E861" type="standard_car" route="E8" depart="1202.0" departLane="random" departSpeed="10" arrivalLane="random" />
    <vehicle id="E862" type="standard_car" route="E8" depart="1202.0" departLane="random" departSpeed="10" arrivalLane="random" />
    <vehicle id="E863" type="standard_car" route="E8" depart="1205.0" departLane="random" departSpeed="10" arrivalLane="random" />
    <vehicle id="E864" type="standard_car" route="E8" depart="1206.0" departLane="random" departSpeed="10" arrivalLane="random" />
    <vehicle id="E865" type="standard_car" route="E8" depart="1207.0" departLane="random" departSpeed="10" arrivalLane="random" />
    <vehicle id="E866" type="standard_car" route="E8" depart="1218.0" departLane="random" departSpeed="10" arrivalLane="random" />
    <vehicle id="E967" type="standard_car" route="E9" depart="1219.0" departLane="random" departSpeed="10" arrivalLane="random" />
    <vehicle id="E868" type="standard_car" route="E8" depart="1224.0" departLane="random" departSpeed="10" arrivalLane="random" />
    <vehicle id="E969" type="standard_car" route="E9" depart="1228.0" departLane="random" departSpeed="10" arrivalLane="random" />
    <vehicle id="E870" type="standard_car" route="E8" depart="1228.0" departLane="random" departSpeed="10" arrivalLane="random" />
    <vehicle id="E871" type="standard_car" route="E8" depart="1237.0" departLane="random" departSpeed="10" arrivalLane="random" />
    <vehicle id="E872" type="standard_car" route="E8" depart="1240.0" departLane="random" departSpeed="10" arrivalLane="random" />
    <vehicle id="E873" type="standard_car" route="E8" depart="1246.0" departLane="random" departSpeed="10" arrivalLane="random" />
    <vehicle id="E874" type="standard_car" route="E8" depart="1262.0" departLane="random" departSpeed="10" arrivalLane="random" />
    <vehicle id="E875" type="standard_car" route="E8" depart="1264.0" departLane="random" departSpeed="10" arrivalLane="random" />
    <vehicle id="E876" type="standard_car" route="E8" depart="1267.0" departLane="random" departSpeed="10" arrivalLane="random" />
    <vehicle id="E877" type="standard_car" route="E8" depart="1269.0" departLane="random" departSpeed="10" arrivalLane="random" />
    <vehicle id="E878" type="standard_car" route="E8" depart="1272.0" departLane="random" departSpeed="10" arrivalLane="random" />
    <vehicle id="E979" type="standard_car" route="E9" depart="1272.0" departLane="random" departSpeed="10" arrivalLane="random" />
    <vehicle id="E880" type="standard_car" route="E8" depart="1273.0" departLane="random" departSpeed="10" arrivalLane="random" />
    <vehicle id="E981" type="standard_car" route="E9" depart="1276.0" departLane="random" departSpeed="10" arrivalLane="random" />
    <vehicle id="E982" type="standard_car" route="E9" depart="1276.0" departLane="random" departSpeed="10" arrivalLane="random" />
    <vehicle id="E983" type="standard_car" route="E9" depart="1278.0" departLane="random" departSpeed="10" arrivalLane="random" />
    <vehicle id="E984" type="standard_car" route="E9" depart="1280.0" departLane="random" departSpeed="10" arrivalLane="random" />
    <vehicle id="E885" type="standard_car" route="E8" depart="1280.0" departLane="random" departSpeed="10" arrivalLane="random" />
    <vehicle id="E886" type="standard_car" route="E8" depart="1282.0" departLane="random" departSpeed="10" arrivalLane="random" />
    <vehicle id="E987" type="standard_car" route="E9" depart="1290.0" departLane="random" departSpeed="10" arrivalLane="random" />
    <vehicle id="E888" type="standard_car" route="E8" depart="1294.0" departLane="random" departSpeed="10" arrivalLane="random" />
    <vehicle id="E889" type="standard_car" route="E8" depart="1297.0" departLane="random" departSpeed="10" arrivalLane="random" />
    <vehicle id="E890" type="standard_car" route="E8" depart="1305.0" departLane="random" departSpeed="10" arrivalLane="random" />
    <vehicle id="E991" type="standard_car" route="E9" depart="1312.0" departLane="random" departSpeed="10" arrivalLane="random" />
    <vehicle id="E892" type="standard_car" route="E8" depart="1315.0" departLane="random" departSpeed="10" arrivalLane="random" />
    <vehicle id="E993" type="standard_car" route="E9" depart="1322.0" departLane="random" departSpeed="10" arrivalLane="random" />
    <vehicle id="E894" type="standard_car" route="E8" depart="1327.0" departLane="random" departSpeed="10" arrivalLane="random" />
    <vehicle id="E895" type="standard_car" route="E8" depart="1329.0" departLane="random" departSpeed="10" arrivalLane="random" />
    <vehicle id="E896" type="standard_car" route="E8" depart="1331.0" departLane="random" departSpeed="10" arrivalLane="random" />
    <vehicle id="E897" type="standard_car" route="E8" depart="1335.0" departLane="random" departSpeed="10" arrivalLane="random" />
    <vehicle id="E898" type="standard_car" route="E8" depart="1348.0" departLane="random" departSpeed="10" arrivalLane="random" />
    <vehicle id="E899" type="standard_car" route="E8" depart="1353.0" departLane="random" departSpeed="10" arrivalLane="random" />
    <vehicle id="E9100" type="standard_car" route="E9" depart="1353.0" departLane="random" departSpeed="10" arrivalLane="random" />
    <vehicle id="E8101" type="standard_car" route="E8" depart="1359.0" departLane="random" departSpeed="10" arrivalLane="random" />
    <vehicle id="E8102" type="standard_car" route="E8" depart="1368.0" departLane="random" departSpeed="10" arrivalLane="random" />
    <vehicle id="E9103" type="standard_car" route="E9" depart="1369.0" departLane="random" departSpeed="10" arrivalLane="random" />
    <vehicle id="E8104" type="standard_car" route="E8" depart="1373.0" departLane="random" departSpeed="10" arrivalLane="random" />
    <vehicle id="E8105" type="standard_car" route="E8" depart="1374.0" departLane="random" departSpeed="10" arrivalLane="random" />
    <vehicle id="E8106" type="standard_car" route="E8" depart="1386.0" departLane="random" departSpeed="10" arrivalLane="random" />
    <vehicle id="E9107" type="standard_car" route="E9" depart="1387.0" departLane="random" departSpeed="10" arrivalLane="random" />
    <vehicle id="E8108" type="standard_car" route="E8" depart="1390.0" departLane="random" departSpeed="10" arrivalLane="random" />
    <vehicle id="E8109" type="standard_car" route="E8" depart="1393.0" departLane="random" departSpeed="10" arrivalLane="random" />
    <vehicle id="E8110" type="standard_car" route="E8" depart="1397.0" departLane="random" departSpeed="10" arrivalLane="random" />
    <vehicle id="E8111" type="standard_car" route="E8" depart="1398.0" departLane="random" departSpeed="10" arrivalLane="random" />
    <vehicle id="E9112" type="standard_car" route="E9" depart="1403.0" departLane="random" departSpeed="10" arrivalLane="random" />
    <vehicle id="E8113" type="standard_car" route="E8" depart="1407.0" departLane="random" departSpeed="10" arrivalLane="random" />
    <vehicle id="E8114" type="standard_car" route="E8" depart="1412.0" departLane="random" departSpeed="10" arrivalLane="random" />
    <vehicle id="E9115" type="standard_car" route="E9" depart="1412.0" departLane="random" departSpeed="10" arrivalLane="random" />
    <vehicle id="E8116" type="standard_car" route="E8" depart="1426.0" departLane="random" departSpeed="10" arrivalLane="random" />
    <vehicle id="E8117" type="standard_car" route="E8" depart="1428.0" departLane="random" departSpeed="10" arrivalLane="random" />
    <vehicle id="E9118" type="standard_car" route="E9" depart="1429.0" departLane="random" departSpeed="10" arrivalLane="random" />
    <vehicle id="E8119" type="standard_car" route="E8" depart="1433.0" departLane="random" departSpeed="10" arrivalLane="random" />
    <vehicle id="E9120" type="standard_car" route="E9" depart="1437.0" departLane="random" departSpeed="10" arrivalLane="random" />
    <vehicle id="E8121" type="standard_car" route="E8" depart="1442.0" departLane="random" departSpeed="10" arrivalLane="random" />
    <vehicle id="E9122" type="standard_car" route="E9" depart="1444.0" departLane="random" departSpeed="10" arrivalLane="random" />
    <vehicle id="E8123" type="standard_car" route="E8" depart="1448.0" departLane="random" departSpeed="10" arrivalLane="random" />
    <vehicle id="E9124" type="standard_car" route="E9" depart="1451.0" departLane="random" departSpeed="10" arrivalLane="random" />
    <vehicle id="E9125" type="standard_car" route="E9" depart="1455.0" departLane="random" departSpeed="10" arrivalLane="random" />
    <vehicle id="E8126" type="standard_car" route="E8" depart="1456.0" departLane="random" departSpeed="10" arrivalLane="random" />
    <vehicle id="E8127" type="standard_car" route="E8" depart="1456.0" departLane="random" departSpeed="10" arrivalLane="random" />
    <vehicle id="E8128" type="standard_car" route="E8" depart="1460.0" departLane="random" departSpeed="10" arrivalLane="random" />
    <vehicle id="E8129" type="standard_car" route="E8" depart="1461.0" departLane="random" departSpeed="10" arrivalLane="random" />
    <vehicle id="E9130" type="standard_car" route="E9" depart="1461.0" departLane="random" departSpeed="10" arrivalLane="random" />
    <vehicle id="E9131" type="standard_car" route="E9" depart="1466.0" departLane="random" departSpeed="10" arrivalLane="random" />
    <vehicle id="E8132" type="standard_car" route="E8" depart="1473.0" departLane="random" departSpeed="10" arrivalLane="random" />
    <vehicle id="E9133" type="standard_car" route="E9" depart="1474.0" departLane="random" departSpeed="10" arrivalLane="random" />
    <vehicle id="E8134" type="standard_car" route="E8" depart="1475.0" departLane="random" departSpeed="10" arrivalLane="random" />
    <vehicle id="E9135" type="standard_car" route="E9" depart="1475.0" departLane="random" departSpeed="10" arrivalLane="random" />
    <vehicle id="E8136" type="standard_car" route="E8" depart="1475.0" departLane="random" departSpeed="10" arrivalLane="random" />
    <vehicle id="E8137" type="standard_car" route="E8" depart="1478.0" departLane="random" departSpeed="10" arrivalLane="random" />
    <vehicle id="E8138" type="standard_car" route="E8" depart="1479.0" departLane="random" departSpeed="10" arrivalLane="random" />
    <vehicle id="E8139" type="standard_car" route="E8" depart="1486.0" departLane="random" departSpeed="10" arrivalLane="random" />
    <vehicle id="E8140" type="standard_car" route="E8" depart="1490.0" departLane="random" departSpeed="10" arrivalLane="random" />
    <vehicle id="E8141" type="standard_car" route="E8" depart="1501.0" departLane="random" departSpeed="10" arrivalLane="random" />
    <vehicle id="E8142" type="standard_car" route="E8" depart="1506.0" departLane="random" departSpeed="10" arrivalLane="random" />
    <vehicle id="E8143" type="standard_car" route="E8" depart="1514.0" departLane="random" departSpeed="10" arrivalLane="random" />
    <vehicle id="E8144" type="standard_car" route="E8" depart="1514.0" departLane="random" departSpeed="10" arrivalLane="random" />
    <vehicle id="E9145" type="standard_car" route="E9" depart="1514.0" departLane="random" departSpeed="10" arrivalLane="random" />
    <vehicle id="E8146" type="standard_car" route="E8" depart="1514.0" departLane="random" departSpeed="10" arrivalLane="random" />
    <vehicle id="E9147" type="standard_car" route="E9" depart="1517.0" departLane="random" departSpeed="10" arrivalLane="random" />
    <vehicle id="E8148" type="standard_car" route="E8" depart="1523.0" departLane="random" departSpeed="10" arrivalLane="random" />
    <vehicle id="E9149" type="standard_car" route="E9" depart="1524.0" departLane="random" departSpeed="10" arrivalLane="random" />
    <vehicle id="E9150" type="standard_car" route="E9" depart="1526.0" departLane="random" departSpeed="10" arrivalLane="random" />
    <vehicle id="E8151" type="standard_car" route="E8" depart="1530.0" departLane="random" departSpeed="10" arrivalLane="random" />
    <vehicle id="E8152" type="standard_car" route="E8" depart="1531.0" departLane="random" departSpeed="10" arrivalLane="random" />
    <vehicle id="E8153" type="standard_car" route="E8" depart="1531.0" departLane="random" departSpeed="10" arrivalLane="random" />
    <vehicle id="E8154" type="standard_car" route="E8" depart="1535.0" departLane="random" departSpeed="10" arrivalLane="random" />
    <vehicle id="E8155" type="standard_car" route="E8" depart="1539.0" departLane="random" departSpeed="10" arrivalLane="random" />
    <vehicle id="E8156" type="standard_car" route="E8" depart="1540.0" departLane="random" departSpeed="10" arrivalLane="random" />
    <vehicle id="E9157" type="standard_car" route="E9" depart="1540.0" departLane="random" departSpeed="10" arrivalLane="random" />
    <vehicle id="E8158" type="standard_car" route="E8" depart="1540.0" departLane="random" departSpeed="10" arrivalLane="random" />
    <vehicle id="E8159" type="standard_car" route="E8" depart="1541.0" departLane="random" departSpeed="10" arrivalLane="random" />
    <vehicle id="E8160" type="standard_car" route="E8" depart="1544.0" departLane="random" departSpeed="10" arrivalLane="random" />
    <vehicle id="E8161" type="standard_car" route="E8" depart="1548.0" departLane="random" departSpeed="10" arrivalLane="random" />
    <vehicle id="E8162" type="standard_car" route="E8" depart="1551.0" departLane="random" departSpeed="10" arrivalLane="random" />
    <vehicle id="E8163" type="standard_car" route="E8" depart="1553.0" departLane="random" departSpeed="10" arrivalLane="random" />
    <vehicle id="E8164" type="standard_car" route="E8" depart="1559.0" departLane="random" departSpeed="10" arrivalLane="random" />
    <vehicle id="E8165" type="standard_car" route="E8" depart="1570.0" departLane="random" departSpeed="10" arrivalLane="random" />
    <vehicle id="E8166" type="standard_car" route="E8" depart="1570.0" departLane="random" departSpeed="10" arrivalLane="random" />
    <vehicle id="E8167" type="standard_car" route="E8" depart="1572.0" departLane="random" departSpeed="10" arrivalLane="random" />
    <vehicle id="E9168" type="standard_car" route="E9" depart="1575.0" departLane="random" departSpeed="10" arrivalLane="random" />
    <vehicle id="E9169" type="standard_car" route="E9" depart="1578.0" departLane="random" departSpeed="10" arrivalLane="random" />
    <vehicle id="E8170" type="standard_car" route="E8" depart="1578.0" departLane="random" departSpeed="10" arrivalLane="random" />
    <vehicle id="E8171" type="standard_car" route="E8" depart="1580.0" departLane="random" departSpeed="10" arrivalLane="random" />
    <vehicle id="E8172" type="standard_car" route="E8" depart="1582.0" departLane="random" departSpeed="10" arrivalLane="random" />
    <vehicle id="E9173" type="standard_car" route="E9" depart="1583.0" departLane="random" departSpeed="10" arrivalLane="random" />
    <vehicle id="E9174" type="standard_car" route="E9" depart="1587.0" departLane="random" departSpeed="10" arrivalLane="random" />
    <vehicle id="E9175" type="standard_car" route="E9" depart="1589.0" departLane="random" departSpeed="10" arrivalLane="random" />
    <vehicle id="E8176" type="standard_car" route="E8" depart="1590.0" departLane="random" departSpeed="10" arrivalLane="random" />
    <vehicle id="E9177" type="standard_car" route="E9" depart="1590.0" departLane="random" departSpeed="10" arrivalLane="random" />
    <vehicle id="E9178" type="standard_car" route="E9" depart="1590.0" departLane="random" departSpeed="10" arrivalLane="random" />
    <vehicle id="E8179" type="standard_car" route="E8" depart="1594.0" departLane="random" departSpeed="10" arrivalLane="random" />
    <vehicle id="E8180" type="standard_car" route="E8" depart="1595.0" departLane="random" departSpeed="10" arrivalLane="random" />
    <vehicle id="E9181" type="standard_car" route="E9" depart="1595.0" departLane="random" departSpeed="10" arrivalLane="random" />
    <vehicle id="E9182" type="standard_car" route="E9" depart="1595.0" departLane="random" departSpeed="10" arrivalLane="random" />
    <vehicle id="E8183" type="standard_car" route="E8" depart="1595.0" departLane="random" departSpeed="10" arrivalLane="random" />
    <vehicle id="E8184" type="standard_car" route="E8" depart="1606.0" departLane="random" departSpeed="10" arrivalLane="random" />
    <vehicle id="E9185" type="standard_car" route="E9" depart="1612.0" departLane="random" departSpeed="10" arrivalLane="random" />
    <vehicle id="E8186" type="standard_car" route="E8" depart="1618.0" departLane="random" departSpeed="10" arrivalLane="random" />
    <vehicle id="E8187" type="standard_car" route="E8" depart="1618.0" departLane="random" departSpeed="10" arrivalLane="random" />
    <vehicle id="E8188" type="standard_car" route="E8" depart="1619.0" departLane="random" departSpeed="10" arrivalLane="random" />
    <vehicle id="E8189" type="standard_car" route="E8" depart="1621.0" departLane="random" departSpeed="10" arrivalLane="random" />
    <vehicle id="E8190" type="standard_car" route="E8" depart="1623.0" departLane="random" departSpeed="10" arrivalLane="random" />
    <vehicle id="E9191" type="standard_car" route="E9" depart="1624.0" departLane="random" departSpeed="10" arrivalLane="random" />
    <vehicle id="E9192" type="standard_car" route="E9" depart="1624.0" departLane="random" departSpeed="10" arrivalLane="random" />
    <vehicle id="E8193" type="standard_car" route="E8" depart="1626.0" departLane="random" departSpeed="10" arrivalLane="random" />
    <vehicle id="E8194" type="standard_car" route="E8" depart="1626.0" departLane="random" departSpeed="10" arrivalLane="random" />
    <vehicle id="E8195" type="standard_car" route="E8" depart="1626.0" departLane="random" departSpeed="10" arrivalLane="random" />
    <vehicle id="E8196" type="standard_car" route="E8" depart="1628.0" departLane="random" departSpeed="10" arrivalLane="random" />
    <vehicle id="E8197" type="standard_car" route="E8" depart="1629.0" departLane="random" departSpeed="10" arrivalLane="random" />
    <vehicle id="E9198" type="standard_car" route="E9" depart="1630.0" departLane="random" departSpeed="10" arrivalLane="random" />
    <vehicle id="E8199" type="standard_car" route="E8" depart="1630.0" departLane="random" departSpeed="10" arrivalLane="random" />
    <vehicle id="E9200" type="standard_car" route="E9" depart="1630.0" departLane="random" departSpeed="10" arrivalLane="random" />
    <vehicle id="E8201" type="standard_car" route="E8" depart="1631.0" departLane="random" departSpeed="10" arrivalLane="random" />
    <vehicle id="E8202" type="standard_car" route="E8" depart="1634.0" departLane="random" departSpeed="10" arrivalLane="random" />
    <vehicle id="E8203" type="standard_car" route="E8" depart="1634.0" departLane="random" departSpeed="10" arrivalLane="random" />
    <vehicle id="E8204" type="standard_car" route="E8" depart="1635.0" departLane="random" departSpeed="10" arrivalLane="random" />
    <vehicle id="E8205" type="standard_car" route="E8" depart="1640.0" departLane="random" departSpeed="10" arrivalLane="random" />
    <vehicle id="E8206" type="standard_car" route="E8" depart="1641.0" departLane="random" departSpeed="10" arrivalLane="random" />
    <vehicle id="E8207" type="standard_car" route="E8" depart="1644.0" departLane="random" departSpeed="10" arrivalLane="random" />
    <vehicle id="E8208" type="standard_car" route="E8" depart="1644.0" departLane="random" departSpeed="10" arrivalLane="random" />
    <vehicle id="E9209" type="standard_car" route="E9" depart="1647.0" departLane="random" departSpeed="10" arrivalLane="random" />
    <vehicle id="E8210" type="standard_car" route="E8" depart="1650.0" departLane="random" departSpeed="10" arrivalLane="random" />
    <vehicle id="E8211" type="standard_car" route="E8" depart="1651.0" departLane="random" departSpeed="10" arrivalLane="random" />
    <vehicle id="E9212" type="standard_car" route="E9" depart="1651.0" departLane="random" departSpeed="10" arrivalLane="random" />
    <vehicle id="E8213" type="standard_car" route="E8" depart="1653.0" departLane="random" departSpeed="10" arrivalLane="random" />
    <vehicle id="E8214" type="standard_car" route="E8" depart="1654.0" departLane="random" departSpeed="10" arrivalLane="random" />
    <vehicle id="E8215" type="standard_car" route="E8" depart="1654.0" departLane="random" departSpeed="10" arrivalLane="random" />
    <vehicle id="E9216" type="standard_car" route="E9" depart="1658.0" departLane="random" departSpeed="10" arrivalLane="random" />
    <vehicle id="E8217" type="standard_car" route="E8" depart="1660.0" departLane="random" departSpeed="10" arrivalLane="random" />
    <vehicle id="E8218" type="standard_car" route="E8" depart="1661.0" departLane="random" departSpeed="10" arrivalLane="random" />
    <vehicle id="E8219" type="standard_car" route="E8" depart="1665.0" departLane="random" departSpeed="10" arrivalLane="random" />
    <vehicle id="E9220" type="standard_car" route="E9" depart="1668.0" departLane="random" departSpeed="10" arrivalLane="random" />
    <vehicle id="E8221" type="standard_car" route="E8" depart="1669.0" departLane="random" departSpeed="10" arrivalLane="random" />
    <vehicle id="E8222" type="standard_car" route="E8" depart="1670.0" departLane="random" departSpeed="10" arrivalLane="random" />
    <vehicle id="E8223" type="standard_car" route="E8" depart="1674.0" departLane="random" departSpeed="10" arrivalLane="random" />
    <vehicle id="E8224" type="standard_car" route="E8" depart="1677.0" departLane="random" departSpeed="10" arrivalLane="random" />
    <vehicle id="E8225" type="standard_car" route="E8" depart="1679.0" departLane="random" departSpeed="10" arrivalLane="random" />