<?xml version="1.0" encoding="UTF-8"?>

<!-- generated on 2023-12-08 21:16:45 by Eclipse SUMO netedit Version 1.19.0
-->

<routes xmlns:xsi="http://www.w3.org/2001/XMLSchema-instance" xsi:noNamespaceSchemaLocation="http://sumo.dlr.de/xsd/routes_file.xsd">
    <!-- Vehicles, persons and containers (sorted by depart) -->
    <flow id="f_7" begin="0.00" departLane="random" departSpeed="10.00" arrivalLane="random" from="E8" to="E10" end="3600.00" vehsPerHour="1800"/>
    <flow id="f_8" begin="0.00" departLane="random" departSpeed="10.00" arrivalLane="random" from="E9" to="E10" end="3600.00" vehsPerHour="1000"/>
</routes>
